7
Coordinates from ORCA-job Aspartic_Acid E -228.550009281438
  H          -0.87685941627744     -0.21382566945058     -1.38502837663652
  C          -0.77933916652554      0.36642312063785     -0.45076088622243
  H          -0.49344416332331      1.39226393565569     -0.74235890981312
  H          -1.75434339502614      0.39396095046642      0.06234797866162
  C           0.35336418065407     -0.26645511738120      0.45490735748684
  O          -0.00361522000808     -0.64244169371787      1.60910721456889
  O           1.49453718050645     -0.32112752621031     -0.09060437804528
